psse/psse-model-test/src/main/resources/illinois/literature-based/IEEE RTS 96 bus (1).RAW
 0,    100.00, 33, 0, 0, 60.00       / April 11, 2016 17:23:21; Simulator Version 19; BuildDate 2016_2_6


  101,'Abel        ', 138.0000,2,  11,  11,   1,1.22363,  40.5785, 1.10000, 0.90000, 1.10000, 0.90000
  102,'Adams       ', 138.0000,2,  11,  12,   1,1.22911,  40.4757, 1.10000, 0.90000, 1.10000, 0.90000
  103,'Adler       ', 138.0000,1,  11,  11,   1,1.05785,  42.2022, 1.10000, 0.90000, 1.10000, 0.90000
  104,'Agricola    ', 138.0000,1,  11,  11,   1,1.14880,  39.2288, 1.10000, 0.90000, 1.10000, 0.90000
  105,'Alken       ', 138.0000,1,  11,  11,   1,1.21407,  39.0165, 1.10000, 0.90000, 1.10000, 0.90000
  106,'Alber       ', 138.0000,1,  11,  12,   1,1.34352,  36.2605, 1.10000, 0.90000, 1.10000, 0.90000
  107,'Alder       ', 138.0000,2,  11,  12,   1,1.24948,  41.3345, 1.10000, 0.90000, 1.10000, 0.90000
  108,'Alger       ', 138.0000,1,  11,  12,   1,1.19282,  38.7333, 1.10000, 0.90000, 1.10000, 0.90000
  109,'Ali         ', 138.0000,1,  11,  13,   1,1.11136,  41.4211, 1.10000, 0.90000, 1.10000, 0.90000
  110,'Allen       ', 138.0000,1,  11,  13,   1,1.22574,  39.7147, 1.10000, 0.90000, 1.10000, 0.90000
  111,'Anna        ', 230.0000,1,  11,  13,   1,1.10453,  45.2351, 1.10000, 0.90000, 1.10000, 0.90000
  112,'Archer      ', 230.0000,1,  11,  13,   1,1.10823,  46.6902, 1.10000, 0.90000, 1.10000, 0.90000
  113,'Arne        ', 230.0000,2,  12,  14,   1,1.11849,  49.2257, 1.10000, 0.90000, 1.10000, 0.90000
  114,'Arnold      ', 230.0000,2,  12,  16,   1,1.04034,  47.1217, 1.10000, 0.90000, 1.10000, 0.90000
  115,'Arthur      ', 230.0000,2,  12,  16,   1,0.97366,  56.2255, 1.10000, 0.90000, 1.10000, 0.90000
  116,'Asser       ', 230.0000,2,  12,  16,   1,0.98077,  56.3391, 1.10000, 0.90000, 1.10000, 0.90000
  117,'Aston       ', 230.0000,1,  12,  17,   1,0.97635,  61.6033, 1.10000, 0.90000, 1.10000, 0.90000
  118,'Astor       ', 230.0000,2,  12,  17,   1,0.97628,  63.2650, 1.10000, 0.90000, 1.10000, 0.90000
  119,'Attar       ', 230.0000,1,  12,  15,   1,0.97658,  54.9673, 1.10000, 0.90000, 1.10000, 0.90000
  120,'Attila      ', 230.0000,1,  12,  15,   1,0.98354,  55.8973, 1.10000, 0.90000, 1.10000, 0.90000
  121,'Attlee      ', 230.0000,2,  12,  17,   1,0.97981,  64.2429, 1.10000, 0.90000, 1.10000, 0.90000
  122,'Aubrey      ', 230.0000,2,  12,  17,   1,0.98370,  70.6243, 1.10000, 0.90000, 1.10000, 0.90000
  123,'Austen      ', 230.0000,3,  12,  15,   1,1.00000,  58.5065, 1.10000, 0.90000, 1.10000, 0.90000
  124,'Avery       ', 230.0000,1,  12,  16,   1,0.99399,  50.4422, 1.10000, 0.90000, 1.10000, 0.90000
  201,'Bach        ', 138.0000,2,  21,  21,   1,1.54522,  39.6963, 1.10000, 0.90000, 1.10000, 0.90000
  202,'Bacon       ', 138.0000,2,  21,  22,   1,1.55308,  39.6019, 1.10000, 0.90000, 1.10000, 0.90000
  203,'Baffin      ', 138.0000,1,  21,  21,   1,1.32296,  41.5680, 1.10000, 0.90000, 1.10000, 0.90000
  204,'Bailey      ', 138.0000,1,  21,  21,   1,1.45634,  39.0566, 1.10000, 0.90000, 1.10000, 0.90000
  205,'Baln        ', 138.0000,1,  21,  21,   1,1.53974,  38.7782, 1.10000, 0.90000, 1.10000, 0.90000
  206,'Bajer       ', 138.0000,1,  21,  22,   1,1.71089,  36.5021, 1.10000, 0.90000, 1.10000, 0.90000
  207,'Baker       ', 138.0000,2,  21,  22,   1,1.48874,  40.4061, 1.10000, 0.90000, 1.10000, 0.90000
  208,'Balch       ', 138.0000,1,  21,  22,   1,1.46538,  38.6831, 1.10000, 0.90000, 1.10000, 0.90000
  209,'Balzac      ', 138.0000,1,  21,  23,   1,1.39747,  40.6625, 1.10000, 0.90000, 1.10000, 0.90000
  210,'Banks       ', 138.0000,1,  21,  23,   1,1.54968,  39.2841, 1.10000, 0.90000, 1.10000, 0.90000
  211,'Bardeen     ', 230.0000,1,  21,  23,   1,1.38430,  43.1034, 1.10000, 0.90000, 1.10000, 0.90000
  212,'Barkla      ', 230.0000,1,  21,  23,   1,1.39563,  43.9909, 1.10000, 0.90000, 1.10000, 0.90000
  213,'Barlow      ', 230.0000,2,  22,  24,   1,1.37774,  45.4178, 1.10000, 0.90000, 1.10000, 0.90000
  214,'Barry       ', 230.0000,2,  22,  26,   1,1.30714,  44.9391, 1.10000, 0.90000, 1.10000, 0.90000
  215,'Barton      ', 230.0000,2,  22,  26,   1,1.20750,  51.6998, 1.10000, 0.90000, 1.10000, 0.90000
  216,'Basov       ', 230.0000,2,  22,  26,   1,1.21908,  51.7968, 1.10000, 0.90000, 1.10000, 0.90000
  217,'Bates       ', 230.0000,1,  22,  27,   1,1.19308,  56.1391, 1.10000, 0.90000, 1.10000, 0.90000
  218,'Bayle       ', 230.0000,2,  22,  27,   1,1.21219,  57.2910, 1.10000, 0.90000, 1.10000, 0.90000
  219,'Bede        ', 230.0000,1,  22,  25,   1,1.22647,  50.6176, 1.10000, 0.90000, 1.10000, 0.90000
  220,'Beethoven   ', 230.0000,1,  22,  25,   1,1.25628,  51.2744, 1.10000, 0.90000, 1.10000, 0.90000
  221,'Behring     ', 230.0000,2,  22,  27,   1,1.22934,  58.8218, 1.10000, 0.90000, 1.10000, 0.90000
  222,'Bell        ', 230.0000,2,  22,  27,   1,1.22311,  62.5717, 1.10000, 0.90000, 1.10000, 0.90000
  223,'Bloch       ', 230.0000,2,  22,  25,   1,1.27900,  52.6004, 1.10000, 0.90000, 1.10000, 0.90000
  224,'Bordet      ', 230.0000,1,  22,  26,   1,1.24344,  47.4467, 1.10000, 0.90000, 1.10000, 0.90000
  301,'Cabell      ', 138.0000,2,  31,  31,   1,0.78287,  22.2028, 1.10000, 0.90000, 1.10000, 0.90000
  302,'Cabot       ', 138.0000,2,  31,  32,   1,0.78401,  22.0301, 1.10000, 0.90000, 1.10000, 0.90000
  303,'Caesar      ', 138.0000,1,  31,  31,   1,0.71920,  24.2941, 1.10000, 0.90000, 1.10000, 0.90000
  304,'Caine       ', 138.0000,1,  31,  31,   1,0.72509,  17.9504, 1.10000, 0.90000, 1.10000, 0.90000
  305,'Calvin      ', 138.0000,1,  31,  31,   1,0.76195,  17.7740, 1.10000, 0.90000, 1.10000, 0.90000
  306,'Camus       ', 138.0000,1,  31,  32,   1,0.82659,  12.8280, 1.10000, 0.90000, 1.10000, 0.90000
  307,'Carew       ', 138.0000,2,  31,  32,   1,0.74914,  22.8398, 1.10000, 0.90000, 1.10000, 0.90000
  308,'Carrel      ', 138.0000,1,  31,  32,   1,0.70800,  15.7114, 1.10000, 0.90000, 1.10000, 0.90000
  309,'Carter      ', 138.0000,1,  31,  33,   1,0.72734,  22.3248, 1.10000, 0.90000, 1.10000, 0.90000
  310,'Caruso      ', 138.0000,1,  31,  33,   1,0.77873,  18.9224, 1.10000, 0.90000, 1.10000, 0.90000
  311,'Cary        ', 230.0000,1,  31,  33,   1,0.76251,  31.0667, 1.10000, 0.90000, 1.10000, 0.90000
  312,'Caxton      ', 230.0000,1,  31,  33,   1,0.76538,  34.0025, 1.10000, 0.90000, 1.10000, 0.90000
  313,'Cecil       ', 230.0000,2,  32,  34,   1,0.79543,  37.7433, 1.10000, 0.90000, 1.10000, 0.90000
  314,'Chain       ', 230.0000,2,  32,  36,   1,0.77338,  35.1238, 1.10000, 0.90000, 1.10000, 0.90000
  315,'Chase       ', 230.0000,2,  32,  36,   1,0.83645,  50.6545, 1.10000, 0.90000, 1.10000, 0.90000
  316,'Chifa       ', 230.0000,2,  32,  36,   1,0.84652,  50.3821, 1.10000, 0.90000, 1.10000, 0.90000
  317,'Chuhsi      ', 230.0000,1,  32,  37,   1,0.91970,  56.6120, 1.10000, 0.90000, 1.10000, 0.90000
  318,'Clark       ', 230.0000,2,  32,  37,   1,0.96210,  58.0568, 1.10000, 0.90000, 1.10000, 0.90000
  319,'Clay        ', 230.0000,1,  32,  35,   1,0.83664,  48.3467, 1.10000, 0.90000, 1.10000, 0.90000
  320,'Clive       ', 230.0000,1,  32,  35,   1,0.84760,  50.5282, 1.10000, 0.90000, 1.10000, 0.90000
  321,'Cobb        ', 230.0000,2,  32,  37,   1,0.93919,  61.6684, 1.10000, 0.90000, 1.10000, 0.90000
  322,'Cole        ', 230.0000,2,  32,  37,   1,0.93248,  67.9598, 1.10000, 0.90000, 1.10000, 0.90000
  323,'Comte       ', 230.0000,2,  32,  35,   1,0.86568,  53.8351, 1.10000, 0.90000, 1.10000, 0.90000
  324,'Curie       ', 230.0000,1,  32,  36,   1,0.76484,  41.7812, 1.10000, 0.90000, 1.10000, 0.90000
  325,'Curtiss     ', 230.0000,1,  32,  35,   1,0.87309,  54.8703, 1.10000, 0.90000, 1.10000, 0.90000
0 / END OF BUS DATA, BEGIN LOAD DATA
  101,'1 ',1,  11,  11,   108.000,    22.000,     0.000,     0.000,     0.000,     0.000,   1,1
  102,'1 ',1,  11,  12,    97.000,    20.000,     0.000,     0.000,     0.000,     0.000,   1,1
  103,'1 ',1,  11,  11,   180.000,    37.000,     0.000,     0.000,     0.000,     0.000,   1,1
  104,'1 ',1,  11,  11,    74.000,    15.000,     0.000,     0.000,     0.000,     0.000,   1,1
  105,'1 ',1,  11,  11,    71.000,    14.000,     0.000,     0.000,     0.000,     0.000,   1,1
  106,'1 ',1,  11,  12,   136.000,    28.000,     0.000,     0.000,     0.000,     0.000,   1,1
  107,'1 ',1,  11,  12,   125.000,    25.000,     0.000,     0.000,     0.000,     0.000,   1,1
  108,'1 ',1,  11,  12,   171.000,    35.000,     0.000,     0.000,     0.000,     0.000,   1,1
  109,'1 ',1,  11,  13,   175.000,    36.000,     0.000,     0.000,     0.000,     0.000,   1,1
  110,'1 ',1,  11,  13,   195.000,    40.000,     0.000,     0.000,     0.000,     0.000,   1,1
  113,'1 ',1,  12,  14,   265.000,    54.000,     0.000,     0.000,     0.000,     0.000,   1,1
  114,'1 ',1,  12,  16,   194.000,    39.000,     0.000,     0.000,     0.000,     0.000,   1,1
  115,'1 ',1,  12,  16,   317.000,    64.000,     0.000,     0.000,     0.000,     0.000,   1,1
  116,'1 ',1,  12,  16,   100.000,    20.000,     0.000,     0.000,     0.000,     0.000,   1,1
  118,'1 ',1,  12,  17,   333.000,    68.000,     0.000,     0.000,     0.000,     0.000,   1,1
  119,'1 ',1,  12,  15,   181.000,    37.000,     0.000,     0.000,     0.000,     0.000,   1,1
  120,'1 ',1,  12,  15,   128.000,    26.000,     0.000,     0.000,     0.000,     0.000,   1,1
  201,'1 ',1,  21,  21,   108.000,    22.000,     0.000,     0.000,     0.000,     0.000,   1,1
  202,'1 ',1,  21,  22,    97.000,    20.000,     0.000,     0.000,     0.000,     0.000,   1,1
  203,'1 ',1,  21,  21,   180.000,    37.000,     0.000,     0.000,     0.000,     0.000,   1,1
  204,'1 ',1,  21,  21,    74.000,    15.000,     0.000,     0.000,     0.000,     0.000,   1,1
  205,'1 ',1,  21,  21,    71.000,    14.000,     0.000,     0.000,     0.000,     0.000,   1,1
  206,'1 ',1,  21,  22,   136.000,    28.000,     0.000,     0.000,     0.000,     0.000,   1,1
  207,'1 ',1,  21,  22,   125.000,    25.000,     0.000,     0.000,     0.000,     0.000,   1,1
  208,'1 ',1,  21,  22,   171.000,    35.000,     0.000,     0.000,     0.000,     0.000,   1,1
  209,'1 ',1,  21,  23,   175.000,    36.000,     0.000,     0.000,     0.000,     0.000,   1,1
  210,'1 ',1,  21,  23,   195.000,    40.000,     0.000,     0.000,     0.000,     0.000,   1,1
  213,'1 ',1,  22,  24,   265.000,    54.000,     0.000,     0.000,     0.000,     0.000,   1,1
  214,'1 ',1,  22,  26,   194.000,    39.000,     0.000,     0.000,     0.000,     0.000,   1,1
  215,'1 ',1,  22,  26,   317.000,    64.000,     0.000,     0.000,     0.000,     0.000,   1,1
  216,'1 ',1,  22,  26,   100.000,    20.000,     0.000,     0.000,     0.000,     0.000,   1,1
  218,'1 ',1,  22,  27,   333.000,    68.000,     0.000,     0.000,     0.000,     0.000,   1,1
  219,'1 ',1,  22,  25,   181.000,    37.000,     0.000,     0.000,     0.000,     0.000,   1,1
  220,'1 ',1,  22,  25,   128.000,    26.000,     0.000,     0.000,     0.000,     0.000,   1,1
  301,'1 ',1,  31,  31,   108.000,    22.000,     0.000,     0.000,     0.000,     0.000,   1,1
  302,'1 ',1,  31,  32,    97.000,    20.000,     0.000,     0.000,     0.000,     0.000,   1,1
  303,'1 ',1,  31,  31,   180.000,    37.000,     0.000,     0.000,     0.000,     0.000,   1,1
  304,'1 ',1,  31,  31,    74.000,    15.000,     0.000,     0.000,     0.000,     0.000,   1,1
  305,'1 ',1,  31,  31,    71.000,    14.000,     0.000,     0.000,     0.000,     0.000,   1,1
  306,'1 ',1,  31,  32,   136.000,    28.000,     0.000,     0.000,     0.000,     0.000,   1,1
  307,'1 ',1,  31,  32,   125.000,    25.000,     0.000,     0.000,     0.000,     0.000,   1,1
  308,'1 ',1,  31,  32,   171.000,    35.000,     0.000,     0.000,     0.000,     0.000,   1,1
  309,'1 ',1,  31,  33,   175.000,    36.000,     0.000,     0.000,     0.000,     0.000,   1,1
  310,'1 ',1,  31,  33,   195.000,    40.000,     0.000,     0.000,     0.000,     0.000,   1,1
  313,'1 ',1,  32,  34,   265.000,    54.000,     0.000,     0.000,     0.000,     0.000,   1,1
  314,'1 ',1,  32,  36,   194.000,    39.000,     0.000,     0.000,     0.000,     0.000,   1,1
  315,'1 ',1,  32,  36,   317.000,    64.000,     0.000,     0.000,     0.000,     0.000,   1,1
  316,'1 ',1,  32,  36,   100.000,    20.000,     0.000,     0.000,     0.000,     0.000,   1,1
  318,'1 ',1,  32,  37,   333.000,    68.000,     0.000,     0.000,     0.000,     0.000,   1,1
  319,'1 ',1,  32,  35,   181.000,    37.000,     0.000,     0.000,     0.000,     0.000,   1,1
  320,'1 ',1,  32,  35,   128.000,    26.000,     0.000,     0.000,     0.000,     0.000,   1,1
0 / END OF LOAD DATA, BEGIN FIXED SHUNT DATA
   106,' 1', 1,     0.000,   100.000
   206,' 1', 1,     0.000,   100.000
   306,' 1', 1,     0.000,   100.000
0 / END OF FIXED SHUNT DATA, BEGIN GENERATOR DATA
  101,'1 ',   172.000,    28.200,    28.200,    28.200,1.00000,    0,   100.000,   0.00000,   1.00000,   0.00000,   0.00000,1.00000,1,  100.0,  1000.000,     0.000,   1,1.0000,   0,1.0000,   0,1.0000,   0,1.0000,0, 1.0000
  102,'1 ',   172.000,    14.000,    14.000,    14.000,1.00000,    0,   100.000,   0.00000,   1.00000,   0.00000,   0.00000,1.00000,1,  100.0,  1000.000,     0.000,   1,1.0000,   0,1.0000,   0,1.0000,   0,1.0000,0, 1.0000
  107,'1 ',   240.000,    51.600,    51.600,    51.600,1.00000,    0,   100.000,   0.00000,   1.00000,   0.00000,   0.00000,1.00000,1,  100.0,  1000.000,     0.000,   1,1.0000,   0,1.0000,   0,1.0000,   0,1.0000,0, 1.0000
  113,'1 ',   285.300,   122.000,   122.000,   122.000,1.00000,    0,   100.000,   0.00000,   1.00000,   0.00000,   0.00000,1.00000,1,  100.0, 10000.000,     0.000,   1,1.0000,   0,1.0000,   0,1.0000,   0,1.0000,0, 1.0000
  114,'1 ',     0.000,    13.700,    13.700,    13.700,1.00000,    0,   100.000,   0.00000,   1.00000,   0.00000,   0.00000,1.00000,1,  100.0,  1000.000,     0.000,   1,1.0000,   0,1.0000,   0,1.0000,   0,1.0000,0, 1.0000
  115,'1 ',   215.000,     0.000,     0.000,     0.000,1.00000,    0,   100.000,   0.00000,   1.00000,   0.00000,   0.00000,1.00000,1,  100.0,  1000.000,     0.000,   1,1.0000,   0,1.0000,   0,1.0000,   0,1.0000,0, 1.0000
  116,'1 ',   155.000,    25.220,    25.220,    25.220,1.00000,    0,   100.000,   0.00000,   1.00000,   0.00000,   0.00000,1.00000,1,  100.0,  1000.000,     0.000,   1,1.0000,   0,1.0000,   0,1.0000,   0,1.0000,0, 1.0000
  118,'1 ',   400.000,    25.220,    25.220,    25.220,1.00000,    0,   100.000,   0.00000,   1.00000,   0.00000,   0.00000,1.00000,1,  100.0,  1000.000,     0.000,   1,1.0000,   0,1.0000,   0,1.0000,   0,1.0000,0, 1.0000
  121,'1 ',   400.000,   108.200,   108.200,   108.200,1.00000,    0,   100.000,   0.00000,   1.00000,   0.00000,   0.00000,1.00000,1,  100.0,  1000.000,     0.000,   1,1.0000,   0,1.0000,   0,1.0000,   0,1.0000,0, 1.0000
  122,'1 ',   300.000,   -24.800,   -24.800,   -24.800,1.00000,    0,   100.000,   0.00000,   1.00000,   0.00000,   0.00000,1.00000,1,  100.0,  1000.000,     0.000,   1,1.0000,   0,1.0000,   0,1.0000,   0,1.0000,0, 1.0000
  123,'1 ',   650.400,  -500.111,  9900.000, -9900.000,1.00000,    0,   100.000,   0.00000,   1.00000,   0.00000,   0.00000,1.00000,1,  100.0,  1000.000,     0.000,   1,1.0000,   0,1.0000,   0,1.0000,   0,1.0000,0, 1.0000
  201,'1 ',   172.000,    28.200,    28.200,    28.200,1.00000,    0,   100.000,   0.00000,   1.00000,   0.00000,   0.00000,1.00000,1,  100.0,  1000.000,     0.000,   1,1.0000,   0,1.0000,   0,1.0000,   0,1.0000,0, 1.0000
  202,'1 ',   172.000,    14.000,    14.000,    14.000,1.00000,    0,   100.000,   0.00000,   1.00000,   0.00000,   0.00000,1.00000,1,  100.0,  1000.000,     0.000,   1,1.0000,   0,1.0000,   0,1.0000,   0,1.0000,0, 1.0000
  207,'1 ',   240.000,    51.600,    51.600,    51.600,1.00000,    0,   100.000,   0.00000,   1.00000,   0.00000,   0.00000,1.00000,1,  100.0,  1000.000,     0.000,   1,1.0000,   0,1.0000,   0,1.0000,   0,1.0000,0, 1.0000
  213,'1 ',   285.300,   122.100,   122.100,   122.100,1.00000,    0,   100.000,   0.00000,   1.00000,   0.00000,   0.00000,1.00000,1,  100.0,  1000.000,     0.000,   1,1.0000,   0,1.0000,   0,1.0000,   0,1.0000,0, 1.0000
  214,'1 ',     0.000,    13.680,    13.680,    13.680,1.00000,    0,   100.000,   0.00000,   1.00000,   0.00000,   0.00000,1.00000,1,  100.0,  1000.000,     0.000,   1,1.0000,   0,1.0000,   0,1.0000,   0,1.0000,0, 1.0000
  215,'1 ',   215.000,     0.048,     0.048,     0.048,1.00000,    0,   100.000,   0.00000,   1.00000,   0.00000,   0.00000,1.00000,1,  100.0,  1000.000,     0.000,   1,1.0000,   0,1.0000,   0,1.0000,   0,1.0000,0, 1.0000
  216,'1 ',   155.000,    25.220,    25.220,    25.220,1.00000,    0,   100.000,   0.00000,   1.00000,   0.00000,   0.00000,1.00000,1,  100.0,  1000.000,     0.000,   1,1.0000,   0,1.0000,   0,1.0000,   0,1.0000,0, 1.0000
  218,'1 ',   400.000,   137.400,   137.400,   137.400,1.00000,    0,   100.000,   0.00000,   1.00000,   0.00000,   0.00000,1.00000,1,  100.0,  1000.000,     0.000,   1,1.0000,   0,1.0000,   0,1.0000,   0,1.0000,0, 1.0000
  221,'1 ',   400.000,   108.200,   108.200,   108.200,1.00000,    0,   100.000,   0.00000,   1.00000,   0.00000,   0.00000,1.00000,1,  100.0,  1000.000,     0.000,   1,1.0000,   0,1.0000,   0,1.0000,   0,1.0000,0, 1.0000
  222,'1 ',   300.000,   -29.760,   -29.760,   -29.760,1.00000,    0,   100.000,   0.00000,   1.00000,   0.00000,   0.00000,1.00000,1,  100.0,  1000.000,     0.000,   1,1.0000,   0,1.0000,   0,1.0000,   0,1.0000,0, 1.0000
  223,'1 ',   610.000,   135.360,   135.360,   135.360,1.00000,    0,   100.000,   0.00000,   1.00000,   0.00000,   0.00000,1.00000,1,  100.0,  1000.000,     0.000,   1,1.0000,   0,1.0000,   0,1.0000,   0,1.0000,0, 1.0000
  301,'1 ',   172.000,    28.200,    28.200,    28.200,1.00000,    0,   100.000,   0.00000,   1.00000,   0.00000,   0.00000,1.00000,1,  100.0,  1000.000,     0.000,   1,1.0000,   0,1.0000,   0,1.0000,   0,1.0000,0, 1.0000
  302,'1 ',   172.000,    14.000,    14.000,    14.000,1.00000,    0,   100.000,   0.00000,   1.00000,   0.00000,   0.00000,1.00000,1,  100.0,  1000.000,     0.000,   1,1.0000,   0,1.0000,   0,1.0000,   0,1.0000,0, 1.0000
  307,'1 ',   240.000,    51.600,    51.600,    51.600,1.00000,    0,   100.000,   0.00000,   1.00000,   0.00000,   0.00000,1.00000,1,  100.0,  1000.000,     0.000,   1,1.0000,   0,1.0000,   0,1.0000,   0,1.0000,0, 1.0000
  313,'1 ',   285.300,   122.100,   122.100,   122.100,1.00000,    0,   100.000,   0.00000,   1.00000,   0.00000,   0.00000,1.00000,1,  100.0,  1000.000,     0.000,   1,1.0000,   0,1.0000,   0,1.0000,   0,1.0000,0, 1.0000
  314,'1 ',     0.000,    13.680,    13.680,    13.680,1.00000,    0,   100.000,   0.00000,   1.00000,   0.00000,   0.00000,1.00000,1,  100.0,  1000.000,     0.000,   1,1.0000,   0,1.0000,   0,1.0000,   0,1.0000,0, 1.0000
  315,'1 ',   215.000,     0.000,     0.000,     0.000,1.00000,    0,   100.000,   0.00000,   1.00000,   0.00000,   0.00000,1.00000,1,  100.0,  1000.000,     0.000,   1,1.0000,   0,1.0000,   0,1.0000,   0,1.0000,0, 1.0000
  316,'1 ',   155.000,    25.220,    25.220,    25.220,1.00000,    0,   100.000,   0.00000,   1.00000,   0.00000,   0.00000,1.00000,1,  100.0,  1000.000,     0.000,   1,1.0000,   0,1.0000,   0,1.0000,   0,1.0000,0, 1.0000
  318,'1 ',   400.000,   137.400,   137.400,   137.400,1.00000,    0,   100.000,   0.00000,   1.00000,   0.00000,   0.00000,1.00000,1,  100.0,  1000.000,     0.000,   1,1.0000,   0,1.0000,   0,1.0000,   0,1.0000,0, 1.0000
  321,'1 ',   400.000,   108.200,   108.200,   108.200,1.00000,    0,   100.000,   0.00000,   1.00000,   0.00000,   0.00000,1.00000,1,  100.0,  1000.000,     0.000,   1,1.0000,   0,1.0000,   0,1.0000,   0,1.0000,0, 1.0000
  322,'1 ',   300.000,   -29.760,   -29.760,   -29.760,1.00000,    0,   100.000,   0.00000,   1.00000,   0.00000,   0.00000,1.00000,1,  100.0,  1000.000,     0.000,   1,1.0000,   0,1.0000,   0,1.0000,   0,1.0000,0, 1.0000
  323,'1 ',   520.000,   135.360,   135.360,   135.360,1.00000,    0,   100.000,   0.00000,   1.00000,   0.00000,   0.00000,1.00000,1,  100.0,  1000.000,     0.000,   1,1.0000,   0,1.0000,   0,1.0000,   0,1.0000,0, 1.0000
0 / END OF GENERATOR DATA, BEGIN BRANCH DATA
  101,   102,'1 ', 0.00300, 0.01400,0.46100, 175.00,   0.00,   0.00,  0.00000,  0.00000,  0.00000,  0.00000,1,1,   0.0,   1,1.0000,   0,1.0000,   0,1.0000,   0,1.0000
  101,   103,'1 ', 0.05500, 0.21100,0.05700, 175.00,   0.00,   0.00,  0.00000,  0.00000,  0.00000,  0.00000,1,1,   0.0,   1,1.0000,   0,1.0000,   0,1.0000,   0,1.0000
  101,   105,'1 ', 0.02200, 0.08500,0.02300, 175.00,   0.00,   0.00,  0.00000,  0.00000,  0.00000,  0.00000,1,1,   0.0,   1,1.0000,   0,1.0000,   0,1.0000,   0,1.0000
  102,   104,'1 ', 0.03300, 0.12700,0.03400, 175.00,   0.00,   0.00,  0.00000,  0.00000,  0.00000,  0.00000,1,1,   0.0,   1,1.0000,   0,1.0000,   0,1.0000,   0,1.0000
  102,   106,'1 ', 0.05000, 0.19200,0.05200, 175.00,   0.00,   0.00,  0.00000,  0.00000,  0.00000,  0.00000,1,1,   0.0,   1,1.0000,   0,1.0000,   0,1.0000,   0,1.0000
  103,   109,'1 ', 0.03100, 0.11900,0.03200, 500.00,   0.00,   0.00,  0.00000,  0.00000,  0.00000,  0.00000,1,1,   0.0,   1,1.0000,   0,1.0000,   0,1.0000,   0,1.0000
  103,   124,'1 ', 0.00200, 0.08400,0.00000, 400.00,   0.00,   0.00,  0.00000,  0.00000,  0.00000,  0.00000,1,1,   0.0,   1,1.0000,   0,1.0000,   0,1.0000,   0,1.0000
  104,   109,'1 ', 0.02700, 0.10400,0.02800, 175.00,   0.00,   0.00,  0.00000,  0.00000,  0.00000,  0.00000,1,1,   0.0,   1,1.0000,   0,1.0000,   0,1.0000,   0,1.0000
  105,   110,'1 ', 0.02300, 0.08800,0.02400, 175.00,   0.00,   0.00,  0.00000,  0.00000,  0.00000,  0.00000,1,1,   0.0,   1,1.0000,   0,1.0000,   0,1.0000,   0,1.0000
  106,   110,'1 ', 0.01400, 0.06100,2.45900, 175.00,   0.00,   0.00,  0.00000,  0.00000,  0.00000,  0.00000,1,1,   0.0,   1,1.0000,   0,1.0000,   0,1.0000,   0,1.0000
  107,   108,'1 ', 0.01600, 0.06100,0.01700,1500.00,   0.00,   0.00,  0.00000,  0.00000,  0.00000,  0.00000,1,1,   0.0,   1,1.0000,   0,1.0000,   0,1.0000,   0,1.0000
  107,   203,'1 ', 0.04200, 0.16100,0.04400, 500.00,   0.00,   0.00,  0.00000,  0.00000,  0.00000,  0.00000,1,1,   0.0,   1,1.0000,   0,1.0000,   0,1.0000,   0,1.0000
  108,   109,'1 ', 0.04300, 0.16500,0.04500, 500.00,   0.00,   0.00,  0.00000,  0.00000,  0.00000,  0.00000,1,1,   0.0,   1,1.0000,   0,1.0000,   0,1.0000,   0,1.0000
  108,   110,'1 ', 0.04300, 0.16500,0.04500, 500.00,   0.00,   0.00,  0.00000,  0.00000,  0.00000,  0.00000,1,1,   0.0,   1,1.0000,   0,1.0000,   0,1.0000,   0,1.0000
  109,   111,'1 ', 0.00200, 0.08400,0.00000, 400.00,   0.00,   0.00,  0.00000,  0.00000,  0.00000,  0.00000,1,1,   0.0,   1,1.0000,   0,1.0000,   0,1.0000,   0,1.0000
  109,   112,'1 ', 0.00200, 0.08400,0.00000, 400.00,   0.00,   0.00,  0.00000,  0.00000,  0.00000,  0.00000,1,1,   0.0,   1,1.0000,   0,1.0000,   0,1.0000,   0,1.0000
  110,   111,'1 ', 0.00200, 0.08400,0.00000, 400.00,   0.00,   0.00,  0.00000,  0.00000,  0.00000,  0.00000,1,1,   0.0,   1,1.0000,   0,1.0000,   0,1.0000,   0,1.0000
  110,   112,'1 ', 0.00200, 0.08400,0.00000, 400.00,   0.00,   0.00,  0.00000,  0.00000,  0.00000,  0.00000,1,1,   0.0,   1,1.0000,   0,1.0000,   0,1.0000,   0,1.0000
  111,   113,'1 ', 0.00600, 0.04800,0.10000,2000.00,   0.00,   0.00,  0.00000,  0.00000,  0.00000,  0.00000,1,1,   0.0,   1,1.0000,   0,1.0000,   0,1.0000,   0,1.0000
  111,   114,'1 ', 0.00500, 0.04200,0.08800,2000.00,   0.00,   0.00,  0.00000,  0.00000,  0.00000,  0.00000,1,1,   0.0,   1,1.0000,   0,1.0000,   0,1.0000,   0,1.0000
  112,   113,'1 ', 0.00600, 0.04800,0.10000,2000.00,   0.00,   0.00,  0.00000,  0.00000,  0.00000,  0.00000,1,1,   0.0,   1,1.0000,   0,1.0000,   0,1.0000,   0,1.0000
  112,   123,'1 ', 0.01200, 0.09700,0.20300, 750.00,   0.00,   0.00,  0.00000,  0.00000,  0.00000,  0.00000,1,1,   0.0,   1,1.0000,   0,1.0000,   0,1.0000,   0,1.0000
  113,   123,'1 ', 0.01100, 0.08700,0.18200,2000.00,   0.00,   0.00,  0.00000,  0.00000,  0.00000,  0.00000,1,1,   0.0,   1,1.0000,   0,1.0000,   0,1.0000,   0,1.0000
  113,   215,'1 ', 0.01000, 0.07500,0.15800,2000.00,   0.00,   0.00,  0.00000,  0.00000,  0.00000,  0.00000,1,1,   0.0,   1,1.0000,   0,1.0000,   0,1.0000,   0,1.0000
  114,   116,'1 ', 0.00500, 0.05900,0.08200, 750.00,   0.00,   0.00,  0.00000,  0.00000,  0.00000,  0.00000,1,1,   0.0,   1,1.0000,   0,1.0000,   0,1.0000,   0,1.0000
  115,   116,'1 ', 0.00200, 0.01700,0.03600, 500.00,   0.00,   0.00,  0.00000,  0.00000,  0.00000,  0.00000,1,1,   0.0,   1,1.0000,   0,1.0000,   0,1.0000,   0,1.0000
  115,   121,'1 ', 0.00600, 0.04900,0.10300, 500.00,   0.00,   0.00,  0.00000,  0.00000,  0.00000,  0.00000,1,1,   0.0,   1,1.0000,   0,1.0000,   0,1.0000,   0,1.0000
  115,   124,'1 ', 0.00700, 0.05200,0.10900, 500.00,   0.00,   0.00,  0.00000,  0.00000,  0.00000,  0.00000,1,1,   0.0,   1,1.0000,   0,1.0000,   0,1.0000,   0,1.0000
  116,   117,'1 ', 0.00300, 0.02600,0.05500, 750.00,   0.00,   0.00,  0.00000,  0.00000,  0.00000,  0.00000,1,1,   0.0,   1,1.0000,   0,1.0000,   0,1.0000,   0,1.0000
  116,   119,'1 ', 0.00300, 0.02300,0.04900, 500.00,   0.00,   0.00,  0.00000,  0.00000,  0.00000,  0.00000,1,1,   0.0,   1,1.0000,   0,1.0000,   0,1.0000,   0,1.0000
  117,   118,'1 ', 0.00200, 0.01400,0.03000, 750.00,   0.00,   0.00,  0.00000,  0.00000,  0.00000,  0.00000,1,1,   0.0,   1,1.0000,   0,1.0000,   0,1.0000,   0,1.0000
  117,   122,'1 ', 0.01400, 0.10500,0.22100, 500.00,   0.00,   0.00,  0.00000,  0.00000,  0.00000,  0.00000,1,1,   0.0,   1,1.0000,   0,1.0000,   0,1.0000,   0,1.0000
  118,   121,'1 ', 0.00300, 0.02600,0.05500, 500.00,   0.00,   0.00,  0.00000,  0.00000,  0.00000,  0.00000,1,1,   0.0,   1,1.0000,   0,1.0000,   0,1.0000,   0,1.0000
  118,   121,'2 ', 0.00300, 0.02600,0.05500, 500.00,   0.00,   0.00,  0.00000,  0.00000,  0.00000,  0.00000,1,1,   0.0,   1,1.0000,   0,1.0000,   0,1.0000,   0,1.0000
  119,   120,'1 ', 0.00500, 0.04000,0.08300, 500.00,   0.00,   0.00,  0.00000,  0.00000,  0.00000,  0.00000,1,1,   0.0,   1,1.0000,   0,1.0000,   0,1.0000,   0,1.0000
  119,   120,'2 ', 0.00500, 0.04000,0.08300, 500.00,   0.00,   0.00,  0.00000,  0.00000,  0.00000,  0.00000,1,1,   0.0,   1,1.0000,   0,1.0000,   0,1.0000,   0,1.0000
  120,   123,'1 ', 0.00300, 0.02200,0.04600, 750.00,   0.00,   0.00,  0.00000,  0.00000,  0.00000,  0.00000,1,1,   0.0,   1,1.0000,   0,1.0000,   0,1.0000,   0,1.0000
  121,   122,'1 ', 0.00900, 0.06800,0.14200, 500.00,   0.00,   0.00,  0.00000,  0.00000,  0.00000,  0.00000,1,1,   0.0,   1,1.0000,   0,1.0000,   0,1.0000,   0,1.0000
  325,   121,'1 ', 0.01200, 0.09700,0.20300,1000.00,   0.00,   0.00,  0.00000,  0.00000,  0.00000,  0.00000,1,1,   0.0,   1,1.0000,   0,1.0000,   0,1.0000,   0,1.0000
  123,   217,'1 ', 0.01000, 0.07400,0.15500, 750.00,   0.00,   0.00,  0.00000,  0.00000,  0.00000,  0.00000,1,1,   0.0,   1,1.0000,   0,1.0000,   0,1.0000,   0,1.0000
  201,   202,'1 ', 0.00300, 0.01400,0.46100, 175.00,   0.00,   0.00,  0.00000,  0.00000,  0.00000,  0.00000,1,1,   0.0,   1,1.0000,   0,1.0000,   0,1.0000,   0,1.0000
  201,   203,'1 ', 0.05500, 0.21100,0.05700, 175.00,   0.00,   0.00,  0.00000,  0.00000,  0.00000,  0.00000,1,1,   0.0,   1,1.0000,   0,1.0000,   0,1.0000,   0,1.0000
  201,   205,'1 ', 0.02200, 0.08500,0.02300, 175.00,   0.00,   0.00,  0.00000,  0.00000,  0.00000,  0.00000,1,1,   0.0,   1,1.0000,   0,1.0000,   0,1.0000,   0,1.0000
  202,   204,'1 ', 0.03300, 0.12700,0.03400, 175.00,   0.00,   0.00,  0.00000,  0.00000,  0.00000,  0.00000,1,1,   0.0,   1,1.0000,   0,1.0000,   0,1.0000,   0,1.0000
  202,   206,'1 ', 0.05000, 0.19200,0.05200, 175.00,   0.00,   0.00,  0.00000,  0.00000,  0.00000,  0.00000,1,1,   0.0,   1,1.0000,   0,1.0000,   0,1.0000,   0,1.0000
  203,   209,'1 ', 0.03100, 0.11900,0.03200, 500.00,   0.00,   0.00,  0.00000,  0.00000,  0.00000,  0.00000,1,1,   0.0,   1,1.0000,   0,1.0000,   0,1.0000,   0,1.0000
  203,   224,'1 ', 0.00200, 0.08400,0.00000, 400.00,   0.00,   0.00,  0.00000,  0.00000,  0.00000,  0.00000,1,1,   0.0,   1,1.0000,   0,1.0000,   0,1.0000,   0,1.0000
  204,   209,'1 ', 0.02700, 0.10400,0.02800, 175.00,   0.00,   0.00,  0.00000,  0.00000,  0.00000,  0.00000,1,1,   0.0,   1,1.0000,   0,1.0000,   0,1.0000,   0,1.0000
  205,   210,'1 ', 0.02300, 0.08800,0.02400, 175.00,   0.00,   0.00,  0.00000,  0.00000,  0.00000,  0.00000,1,1,   0.0,   1,1.0000,   0,1.0000,   0,1.0000,   0,1.0000
  206,   210,'1 ', 0.01400, 0.06100,2.45900, 175.00,   0.00,   0.00,  0.00000,  0.00000,  0.00000,  0.00000,1,1,   0.0,   1,1.0000,   0,1.0000,   0,1.0000,   0,1.0000
  207,   208,'1 ', 0.01600, 0.06100,0.01700, 175.00,   0.00,   0.00,  0.00000,  0.00000,  0.00000,  0.00000,1,1,   0.0,   1,1.0000,   0,1.0000,   0,1.0000,   0,1.0000
  208,   209,'1 ', 0.04300, 0.16500,0.04500, 175.00,   0.00,   0.00,  0.00000,  0.00000,  0.00000,  0.00000,1,1,   0.0,   1,1.0000,   0,1.0000,   0,1.0000,   0,1.0000
  208,   210,'1 ', 0.04300, 0.16500,0.04500, 175.00,   0.00,   0.00,  0.00000,  0.00000,  0.00000,  0.00000,1,1,   0.0,   1,1.0000,   0,1.0000,   0,1.0000,   0,1.0000
  209,   211,'1 ', 0.00200, 0.08400,0.00000, 400.00,   0.00,   0.00,  0.00000,  0.00000,  0.00000,  0.00000,1,1,   0.0,   1,1.0000,   0,1.0000,   0,1.0000,   0,1.0000
  209,   212,'1 ', 0.00200, 0.08400,0.00000, 400.00,   0.00,   0.00,  0.00000,  0.00000,  0.00000,  0.00000,1,1,   0.0,   1,1.0000,   0,1.0000,   0,1.0000,   0,1.0000
  210,   211,'1 ', 0.00200, 0.08400,0.00000, 400.00,   0.00,   0.00,  0.00000,  0.00000,  0.00000,  0.00000,1,1,   0.0,   1,1.0000,   0,1.0000,   0,1.0000,   0,1.0000
  210,   212,'1 ', 0.00200, 0.08400,0.00000, 400.00,   0.00,   0.00,  0.00000,  0.00000,  0.00000,  0.00000,1,1,   0.0,   1,1.0000,   0,1.0000,   0,1.0000,   0,1.0000
  211,   213,'1 ', 0.00600, 0.04800,0.10000, 500.00,   0.00,   0.00,  0.00000,  0.00000,  0.00000,  0.00000,1,1,   0.0,   1,1.0000,   0,1.0000,   0,1.0000,   0,1.0000
  211,   214,'1 ', 0.00500, 0.04200,0.08800, 500.00,   0.00,   0.00,  0.00000,  0.00000,  0.00000,  0.00000,1,1,   0.0,   1,1.0000,   0,1.0000,   0,1.0000,   0,1.0000
  212,   213,'1 ', 0.00600, 0.04800,0.10000, 500.00,   0.00,   0.00,  0.00000,  0.00000,  0.00000,  0.00000,1,1,   0.0,   1,1.0000,   0,1.0000,   0,1.0000,   0,1.0000
  212,   223,'1 ', 0.01200, 0.09700,0.20300, 500.00,   0.00,   0.00,  0.00000,  0.00000,  0.00000,  0.00000,1,1,   0.0,   1,1.0000,   0,1.0000,   0,1.0000,   0,1.0000
  213,   223,'1 ', 0.01100, 0.08700,0.18200, 500.00,   0.00,   0.00,  0.00000,  0.00000,  0.00000,  0.00000,1,1,   0.0,   1,1.0000,   0,1.0000,   0,1.0000,   0,1.0000
  214,   216,'1 ', 0.00500, 0.05900,0.08200, 500.00,   0.00,   0.00,  0.00000,  0.00000,  0.00000,  0.00000,1,1,   0.0,   1,1.0000,   0,1.0000,   0,1.0000,   0,1.0000
  215,   216,'1 ', 0.00200, 0.01700,0.03600, 750.00,   0.00,   0.00,  0.00000,  0.00000,  0.00000,  0.00000,1,1,   0.0,   1,1.0000,   0,1.0000,   0,1.0000,   0,1.0000
  215,   221,'1 ', 0.00600, 0.04900,0.10300, 500.00,   0.00,   0.00,  0.00000,  0.00000,  0.00000,  0.00000,1,1,   0.0,   1,1.0000,   0,1.0000,   0,1.0000,   0,1.0000
  215,   224,'1 ', 0.00700, 0.05200,0.10900, 500.00,   0.00,   0.00,  0.00000,  0.00000,  0.00000,  0.00000,1,1,   0.0,   1,1.0000,   0,1.0000,   0,1.0000,   0,1.0000
  216,   217,'1 ', 0.00300, 0.02600,0.05500, 750.00,   0.00,   0.00,  0.00000,  0.00000,  0.00000,  0.00000,1,1,   0.0,   1,1.0000,   0,1.0000,   0,1.0000,   0,1.0000
  216,   219,'1 ', 0.00300, 0.02300,0.04900, 750.00,   0.00,   0.00,  0.00000,  0.00000,  0.00000,  0.00000,1,1,   0.0,   1,1.0000,   0,1.0000,   0,1.0000,   0,1.0000
  217,   218,'1 ', 0.00200, 0.01400,0.03000, 500.00,   0.00,   0.00,  0.00000,  0.00000,  0.00000,  0.00000,1,1,   0.0,   1,1.0000,   0,1.0000,   0,1.0000,   0,1.0000
  217,   222,'1 ', 0.01400, 0.10500,0.22100, 500.00,   0.00,   0.00,  0.00000,  0.00000,  0.00000,  0.00000,1,1,   0.0,   1,1.0000,   0,1.0000,   0,1.0000,   0,1.0000
  218,   221,'1 ', 0.00300, 0.02600,0.05500, 500.00,   0.00,   0.00,  0.00000,  0.00000,  0.00000,  0.00000,1,1,   0.0,   1,1.0000,   0,1.0000,   0,1.0000,   0,1.0000
  219,   220,'1 ', 0.00500, 0.04000,0.08300, 750.00,   0.00,   0.00,  0.00000,  0.00000,  0.00000,  0.00000,1,1,   0.0,   1,1.0000,   0,1.0000,   0,1.0000,   0,1.0000
  220,   223,'1 ', 0.00300, 0.02200,0.04600, 750.00,   0.00,   0.00,  0.00000,  0.00000,  0.00000,  0.00000,1,1,   0.0,   1,1.0000,   0,1.0000,   0,1.0000,   0,1.0000
  221,   222,'1 ', 0.00900, 0.06800,0.14200, 500.00,   0.00,   0.00,  0.00000,  0.00000,  0.00000,  0.00000,1,1,   0.0,   1,1.0000,   0,1.0000,   0,1.0000,   0,1.0000
  318,   223,'1 ', 0.01300, 0.10400,0.21800, 750.00,   0.00,   0.00,  0.00000,  0.00000,  0.00000,  0.00000,1,1,   0.0,   1,1.0000,   0,1.0000,   0,1.0000,   0,1.0000
  301,   302,'1 ', 0.00300, 0.01400,0.46100, 175.00,   0.00,   0.00,  0.00000,  0.00000,  0.00000,  0.00000,1,1,   0.0,   1,1.0000,   0,1.0000,   0,1.0000,   0,1.0000
  301,   303,'1 ', 0.05500, 0.21100,0.05700, 175.00,   0.00,   0.00,  0.00000,  0.00000,  0.00000,  0.00000,1,1,   0.0,   1,1.0000,   0,1.0000,   0,1.0000,   0,1.0000
  301,   305,'1 ', 0.02200, 0.08500,0.02300, 175.00,   0.00,   0.00,  0.00000,  0.00000,  0.00000,  0.00000,1,1,   0.0,   1,1.0000,   0,1.0000,   0,1.0000,   0,1.0000
  302,   304,'1 ', 0.03300, 0.12700,0.03400, 175.00,   0.00,   0.00,  0.00000,  0.00000,  0.00000,  0.00000,1,1,   0.0,   1,1.0000,   0,1.0000,   0,1.0000,   0,1.0000
  302,   306,'1 ', 0.05000, 0.19200,0.05200, 175.00,   0.00,   0.00,  0.00000,  0.00000,  0.00000,  0.00000,1,1,   0.0,   1,1.0000,   0,1.0000,   0,1.0000,   0,1.0000
  303,   309,'1 ', 0.03100, 0.11900,0.03200, 175.00,   0.00,   0.00,  0.00000,  0.00000,  0.00000,  0.00000,1,1,   0.0,   1,1.0000,   0,1.0000,   0,1.0000,   0,1.0000
  303,   324,'1 ', 0.00200, 0.08400,0.00000, 400.00,   0.00,   0.00,  0.00000,  0.00000,  0.00000,  0.00000,1,1,   0.0,   1,1.0000,   0,1.0000,   0,1.0000,   0,1.0000
  304,   309,'1 ', 0.02700, 0.10400,0.02800, 175.00,   0.00,   0.00,  0.00000,  0.00000,  0.00000,  0.00000,1,1,   0.0,   1,1.0000,   0,1.0000,   0,1.0000,   0,1.0000
  305,   310,'1 ', 0.02300, 0.08800,0.02400, 175.00,   0.00,   0.00,  0.00000,  0.00000,  0.00000,  0.00000,1,1,   0.0,   1,1.0000,   0,1.0000,   0,1.0000,   0,1.0000
  306,   310,'1 ', 0.01400, 0.06100,2.45900, 175.00,   0.00,   0.00,  0.00000,  0.00000,  0.00000,  0.00000,1,1,   0.0,   1,1.0000,   0,1.0000,   0,1.0000,   0,1.0000
  307,   308,'1 ', 0.01600, 0.06100,0.01700, 175.00,   0.00,   0.00,  0.00000,  0.00000,  0.00000,  0.00000,1,1,   0.0,   1,1.0000,   0,1.0000,   0,1.0000,   0,1.0000
  308,   309,'1 ', 0.04300, 0.16500,0.04500, 175.00,   0.00,   0.00,  0.00000,  0.00000,  0.00000,  0.00000,1,1,   0.0,   1,1.0000,   0,1.0000,   0,1.0000,   0,1.0000
  308,   310,'1 ', 0.04300, 0.16500,0.04500, 175.00,   0.00,   0.00,  0.00000,  0.00000,  0.00000,  0.00000,1,1,   0.0,   1,1.0000,   0,1.0000,   0,1.0000,   0,1.0000
  309,   311,'1 ', 0.00200, 0.08400,0.00000, 400.00,   0.00,   0.00,  0.00000,  0.00000,  0.00000,  0.00000,1,1,   0.0,   1,1.0000,   0,1.0000,   0,1.0000,   0,1.0000
  309,   312,'1 ', 0.00200, 0.08400,0.00000, 400.00,   0.00,   0.00,  0.00000,  0.00000,  0.00000,  0.00000,1,1,   0.0,   1,1.0000,   0,1.0000,   0,1.0000,   0,1.0000
  310,   311,'1 ', 0.00200, 0.08400,0.00000, 400.00,   0.00,   0.00,  0.00000,  0.00000,  0.00000,  0.00000,1,1,   0.0,   1,1.0000,   0,1.0000,   0,1.0000,   0,1.0000
  310,   312,'1 ', 0.00200, 0.08400,0.00000, 400.00,   0.00,   0.00,  0.00000,  0.00000,  0.00000,  0.00000,1,1,   0.0,   1,1.0000,   0,1.0000,   0,1.0000,   0,1.0000
  311,   313,'1 ', 0.00600, 0.04800,0.10000, 500.00,   0.00,   0.00,  0.00000,  0.00000,  0.00000,  0.00000,1,1,   0.0,   1,1.0000,   0,1.0000,   0,1.0000,   0,1.0000
  311,   314,'1 ', 0.00500, 0.04200,0.08800, 500.00,   0.00,   0.00,  0.00000,  0.00000,  0.00000,  0.00000,1,1,   0.0,   1,1.0000,   0,1.0000,   0,1.0000,   0,1.0000
  312,   313,'1 ', 0.00600, 0.04800,0.10000,   0.00,   0.00,   0.00,  0.00000,  0.00000,  0.00000,  0.00000,1,1,   0.0,   1,1.0000,   0,1.0000,   0,1.0000,   0,1.0000
  312,   323,'1 ', 0.01200, 0.09700,0.20300, 500.00,   0.00,   0.00,  0.00000,  0.00000,  0.00000,  0.00000,1,1,   0.0,   1,1.0000,   0,1.0000,   0,1.0000,   0,1.0000
  313,   323,'1 ', 0.01100, 0.08700,0.18200, 500.00,   0.00,   0.00,  0.00000,  0.00000,  0.00000,  0.00000,1,1,   0.0,   1,1.0000,   0,1.0000,   0,1.0000,   0,1.0000
  314,   316,'1 ', 0.00500, 0.05900,0.08200, 500.00,   0.00,   0.00,  0.00000,  0.00000,  0.00000,  0.00000,1,1,   0.0,   1,1.0000,   0,1.0000,   0,1.0000,   0,1.0000
  315,   316,'1 ', 0.00200, 0.01700,0.03600, 500.00,   0.00,   0.00,  0.00000,  0.00000,  0.00000,  0.00000,1,1,   0.0,   1,1.0000,   0,1.0000,   0,1.0000,   0,1.0000
  315,   321,'1 ', 0.00600, 0.04900,0.10300, 500.00,   0.00,   0.00,  0.00000,  0.00000,  0.00000,  0.00000,1,1,   0.0,   1,1.0000,   0,1.0000,   0,1.0000,   0,1.0000
  315,   324,'1 ', 0.00700, 0.05200,0.10900, 500.00,   0.00,   0.00,  0.00000,  0.00000,  0.00000,  0.00000,1,1,   0.0,   1,1.0000,   0,1.0000,   0,1.0000,   0,1.0000
  316,   317,'1 ', 0.00300, 0.02600,0.05500, 500.00,   0.00,   0.00,  0.00000,  0.00000,  0.00000,  0.00000,1,1,   0.0,   1,1.0000,   0,1.0000,   0,1.0000,   0,1.0000
  316,   319,'1 ', 0.00300, 0.02300,0.04900, 500.00,   0.00,   0.00,  0.00000,  0.00000,  0.00000,  0.00000,1,1,   0.0,   1,1.0000,   0,1.0000,   0,1.0000,   0,1.0000
  317,   318,'1 ', 0.00200, 0.01400,0.03000, 500.00,   0.00,   0.00,  0.00000,  0.00000,  0.00000,  0.00000,1,1,   0.0,   1,1.0000,   0,1.0000,   0,1.0000,   0,1.0000
  317,   322,'1 ', 0.01400, 0.10500,0.22100, 500.00,   0.00,   0.00,  0.00000,  0.00000,  0.00000,  0.00000,1,1,   0.0,   1,1.0000,   0,1.0000,   0,1.0000,   0,1.0000
  318,   321,'1 ', 0.00300, 0.02600,0.05500, 500.00,   0.00,   0.00,  0.00000,  0.00000,  0.00000,  0.00000,1,1,   0.0,   1,1.0000,   0,1.0000,   0,1.0000,   0,1.0000
  319,   320,'1 ', 0.00500, 0.04000,0.08300, 500.00,   0.00,   0.00,  0.00000,  0.00000,  0.00000,  0.00000,1,1,   0.0,   1,1.0000,   0,1.0000,   0,1.0000,   0,1.0000
  320,   323,'1 ', 0.00300, 0.02200,0.04600,   0.00,   0.00,   0.00,  0.00000,  0.00000,  0.00000,  0.00000,1,1,   0.0,   1,1.0000,   0,1.0000,   0,1.0000,   0,1.0000
  321,   322,'1 ', 0.00900, 0.06800,0.14200, 500.00,   0.00,   0.00,  0.00000,  0.00000,  0.00000,  0.00000,1,1,   0.0,   1,1.0000,   0,1.0000,   0,1.0000,   0,1.0000
  323,   325,'1 ', 0.00000, 0.00900,0.00000,1000.00,   0.00,   0.00,  0.00000,  0.00000,  0.00000,  0.00000,1,1,   0.0,   1,1.0000,   0,1.0000,   0,1.0000,   0,1.0000
0 / END OF BRANCH DATA, BEGIN TRANSFORMER DATA
0 / END OF TRANSFORMER DATA, BEGIN AREA DATA
  11,    0,     0.000,     1.000,'11          '
  12,    0,     0.000,     1.000,'12          '
  21,    0,     0.000,     1.000,'21          '
  22,    0,     0.000,     1.000,'22          '
  31,    0,     0.000,     1.000,'31          '
  32,    0,     0.000,     1.000,'32          '
0 / END OF AREA DATA, BEGIN TWO-TERMINAL DC DATA
0 / END OF TWO-TERMINAL DC DATA, BEGIN VOLTAGE SOURCE CONVERTER DATA
0 / END OF VOLTAGE SOURCE CONVERTER DATA, BEGIN IMPEDANCE CORRECTION DATA
0 / END OF IMPEDANCE CORRECTION DATA, BEGIN MULTI-TERMINAL DC DATA
0 / END OF MULTI-TERMINAL DC DATA, BEGIN MULTI-SECTION LINE DATA
0 / END OF MULTI-SECTION LINE DATA, BEGIN ZONE DATA
  11,'11      '
  12,'12      '
  13,'13      '
  14,'14      '
  15,'15      '
  16,'16      '
  17,'17      '
  21,'21      '
  22,'22      '
  23,'23      '
  24,'24      '
  25,'25      '
  26,'26      '
  27,'27      '
  31,'31      '
  32,'32      '
  33,'33      '
  34,'34      '
  35,'35      '
  36,'36      '
  37,'37      '
0 / END OF ZONE DATA, BEGIN INTER-AREA TRANSFER DATA
0 / END OF INTER-AREA TRANSFER DATA, BEGIN OWNER DATA
    1,'1'
0 / END OF OWNER DATA, BEGIN FACTS CONTROL DEVICE DATA
0 / END OF FACTS CONTROL DEVICE DATA, BEGIN SWITCHED SHUNT DATA
0 /END OF SWITCHED SHUNT DATA, BEGIN GNE DEVICE DATA
0 /END OF GNE DEVICE DATA
Q
